/*--------------------------------*- C++ -*----------------------------------*\
| =========                 |                                                 |
| \\      /  F ield         | foam-extend: Open Source CFD                    |
|  \\    /   O peration     | Version:     4.0                                |
|   \\  /    A nd           | Web:         http://www.foam-extend.org         |
|    \\/     M anipulation  |                                                 |
\*---------------------------------------------------------------------------*/
FoamFile
{
    version     2.0;
    format      ascii;
    class       volScalarField;
    object      k;
}
// * * * * * * * * * * * * * * * * * * * * * * * * * * * * * * * * * * * * * //

dimensions      [1 1 -3 -1 0 0 0];

internalField   uniform 1600;//1.2;

boundaryField
{
    left
    {
        type            zeroGradient;//chtRcThermalDiffusivity;
        
    }
    top
    {
type            chtRcThermalDiffusivity;
        remoteField     kappaEff;
        value           uniform 1600;//0.12;
    }
    bottom
    {
type            chtRcThermalDiffusivity;
        remoteField     kappaEff;
        value           uniform 1600;//0.12;
    }
    right
    {
        type            zeroGradient;
    }

    frontAndBack
    {
        type            empty;
    }
}


// ************************************************************************* //
